example-pypsa/solved_network_RTS_GMLS_base+gen_expansion.m
%% MATPOWER Case Format : Version 2
function mpc = 
mpc.version = '2';

%%-----  Power Flow Data  -----%%
%% system MVA base
mpc.baseMVA = 100.0;
%% bus data
%    bus_i    type    Pd    Qd    Gs    Bs    area    Vm    Va    baseKV    zone    Vmax    Vmin
mpc.bus = [
	1	3	0.0	0.0	0.0	0.0	1	1.0468	0.0	138.0	1	1.05	0.95				
	2	2	0.0	0.0	0.0	0.0	1	1.0467	0.0	138.0	1	1.05	0.95				
	3	1	0.0	0.0	0.0	0.0	1	1.0	0.0	138.0	1	1.05	0.95				
	4	1	0.0	0.0	0.0	0.0	1	1.0	0.0	138.0	1	1.05	0.95				
	5	1	0.0	0.0	0.0	0.0	1	1.0	0.0	138.0	1	1.05	0.95				
	6	1	0.0	0.0	0.0	0.0	1	1.0	0.0	138.0	1	1.05	0.95				
	7	2	0.0	0.0	0.0	0.0	1	1.05	0.0	138.0	1	1.05	0.95				
	8	1	0.0	0.0	0.0	0.0	1	1.0	0.0	138.0	1	1.05	0.95				
	9	1	0.0	0.0	0.0	0.0	1	1.0	0.0	138.0	1	1.05	0.95				
	10	1	0.0	0.0	0.0	0.0	1	1.0	0.0	138.0	1	1.05	0.95				
	11	1	0.0	0.0	0.0	0.0	1	1.0	0.0	230.0	1	1.05	0.95				
	12	1	0.0	0.0	0.0	0.0	1	1.0	0.0	230.0	1	1.05	0.95				
	13	1	0.0	0.0	0.0	0.0	1	1.0347	0.0	230.0	1	1.05	0.95				
	14	1	0.0	0.0	0.0	0.0	1	1.0	0.0	230.0	1	1.05	0.95				
	15	2	0.0	0.0	0.0	0.0	1	1.0428	0.0	230.0	1	1.05	0.95				
	16	2	0.0	0.0	0.0	0.0	1	1.0461	0.0	230.0	1	1.05	0.95				
	17	1	0.0	0.0	0.0	0.0	1	1.0	0.0	230.0	1	1.05	0.95				
	18	2	0.0	0.0	0.0	0.0	1	1.05	0.0	230.0	1	1.05	0.95				
	19	1	0.0	0.0	0.0	0.0	1	1.0	0.0	230.0	1	1.05	0.95				
	20	1	0.0	0.0	0.0	0.0	1	1.0	0.0	230.0	1	1.05	0.95				
	21	2	0.0	0.0	0.0	0.0	1	1.05	0.0	230.0	1	1.05	0.95				
	22	2	0.0	0.0	0.0	0.0	1	1.05	0.0	230.0	1	1.05	0.95				
	23	2	0.0	0.0	0.0	0.0	1	1.05	0.0	230.0	1	1.05	0.95				
	24	1	0.0	0.0	0.0	0.0	1	1.0	0.0	230.0	1	1.05	0.95				
	25	2	0.0	0.0	0.0	0.0	1	1.05	0.0	138.0	1	1.05	0.95				
	26	2	0.0	0.0	0.0	0.0	1	1.05	0.0	138.0	1	1.05	0.95				
	27	1	0.0	0.0	0.0	0.0	1	1.0	0.0	138.0	1	1.05	0.95				
	28	1	0.0	0.0	0.0	0.0	1	1.0	0.0	138.0	1	1.05	0.95				
	29	1	0.0	0.0	0.0	0.0	1	1.0	0.0	138.0	1	1.05	0.95				
	30	1	0.0	0.0	0.0	0.0	1	1.0	0.0	138.0	1	1.05	0.95				
	31	2	0.0	0.0	0.0	0.0	1	0.9699	0.0	138.0	1	1.05	0.95				
	32	1	0.0	0.0	0.0	0.0	1	1.0	0.0	138.0	1	1.05	0.95				
	33	1	0.0	0.0	0.0	0.0	1	1.0	0.0	138.0	1	1.05	0.95				
	34	1	0.0	0.0	0.0	0.0	1	1.0	0.0	138.0	1	1.05	0.95				
	35	1	0.0	0.0	0.0	0.0	1	1.0	0.0	230.0	1	1.05	0.95				
	36	1	0.0	0.0	0.0	0.0	1	1.0	0.0	230.0	1	1.05	0.95				
	37	2	0.0	0.0	0.0	0.0	1	1.05	0.0	230.0	1	1.05	0.95				
	38	1	0.0	0.0	0.0	0.0	1	1.0	0.0	230.0	1	1.05	0.95				
	39	2	0.0	0.0	0.0	0.0	1	1.0437	0.0	230.0	1	1.05	0.95				
	40	2	0.0	0.0	0.0	0.0	1	1.0473	0.0	230.0	1	1.05	0.95				
	41	1	0.0	0.0	0.0	0.0	1	1.0	0.0	230.0	1	1.05	0.95				
	42	2	0.0	0.0	0.0	0.0	1	1.05	0.0	230.0	1	1.05	0.95				
	43	1	0.0	0.0	0.0	0.0	1	1.0	0.0	230.0	1	1.05	0.95				
	44	1	0.0	0.0	0.0	0.0	1	1.0	0.0	230.0	1	1.05	0.95				
	45	2	0.0	0.0	0.0	0.0	1	1.05	0.0	230.0	1	1.05	0.95				
	46	2	0.0	0.0	0.0	0.0	1	1.05	0.0	230.0	1	1.05	0.95				
	47	2	0.0	0.0	0.0	0.0	1	1.05	0.0	230.0	1	1.05	0.95				
	48	1	0.0	0.0	0.0	0.0	1	1.0	0.0	230.0	1	1.05	0.95				
	49	2	0.0	0.0	0.0	0.0	1	1.05	0.0	138.0	1	1.05	0.95				
	50	2	0.0	0.0	0.0	0.0	1	1.05	0.0	138.0	1	1.05	0.95				
	51	1	0.0	0.0	0.0	0.0	1	1.0	0.0	138.0	1	1.05	0.95				
	52	1	0.0	0.0	0.0	0.0	1	1.0	0.0	138.0	1	1.05	0.95				
	53	1	0.0	0.0	0.0	0.0	1	1.0	0.0	138.0	1	1.05	0.95				
	54	1	0.0	0.0	0.0	0.0	1	1.0	0.0	138.0	1	1.05	0.95				
	55	2	0.0	0.0	0.0	0.0	1	0.9568	0.0	138.0	1	1.05	0.95				
	56	1	0.0	0.0	0.0	0.0	1	1.0	0.0	138.0	1	1.05	0.95				
	57	1	0.0	0.0	0.0	0.0	1	1.0	0.0	138.0	1	1.05	0.95				
	58	1	0.0	0.0	0.0	0.0	1	1.0	0.0	138.0	1	1.05	0.95				
	59	1	0.0	0.0	0.0	0.0	1	1.0	0.0	230.0	1	1.05	0.95				
	60	1	0.0	0.0	0.0	0.0	1	1.0	0.0	230.0	1	1.05	0.95				
	61	2	0.0	0.0	0.0	0.0	1	1.035	0.0	230.0	1	1.05	0.95				
	62	1	0.0	0.0	0.0	0.0	1	1.0	0.0	230.0	1	1.05	0.95				
	63	2	0.0	0.0	0.0	0.0	1	1.0422	0.0	230.0	1	1.05	0.95				
	64	2	0.0	0.0	0.0	0.0	1	1.0449	0.0	230.0	1	1.05	0.95				
	65	1	0.0	0.0	0.0	0.0	1	1.0	0.0	230.0	1	1.05	0.95				
	66	2	0.0	0.0	0.0	0.0	1	1.05	0.0	230.0	1	1.05	0.95				
	67	1	0.0	0.0	0.0	0.0	1	1.0	0.0	230.0	1	1.05	0.95				
	68	1	0.0	0.0	0.0	0.0	1	1.0	0.0	230.0	1	1.05	0.95				
	69	2	0.0	0.0	0.0	0.0	1	1.05	0.0	230.0	1	1.05	0.95				
	70	2	0.0	0.0	0.0	0.0	1	1.05	0.0	230.0	1	1.05	0.95				
	71	2	0.0	0.0	0.0	0.0	1	1.05	0.0	230.0	1	1.05	0.95				
	72	1	0.0	0.0	0.0	0.0	1	1.0	0.0	230.0	1	1.05	0.95				
	73	1	0.0	0.0	0.0	0.0	1	1.0	0.0	230.0	1	1.05	0.95				
];

%% generator data
%    bus    Pg    Qg    Qmax    Qmin    Vg    mBase    status    Pmax    Pmin    Pc1    Pc2    Qc1min    Qc1max    Qc2min    Qc2max    ramp_agc    ramp_10    ramp_30    ramp_q    apf
mpc.gen = [
	31	0.0	-18.9999391	95.5789098958818	0.0	0.9699	95.5789098958818	1	95.5789098958818	0.0								95.5789098958818							
	13	0.0	-19.017851000000004	179.07982528158357	0.0	1.0347	179.07982528158357	1	179.07982528158357	0.0								179.07982528158357							
	55	0.0	-18.9887536	85.57967766494744	0.0	0.9568	85.57967766494744	1	85.57967766494744	0.0								85.57967766494744							
	50	0.0	-9.843150470000001	115.36286575390892	0.0	1.05	115.36286575390892	1	115.36286575390892	0.0								115.36286575390892							
	16	0.0	0.0	334.93585171125824	0.0	1.0461	334.93585171125824	1	334.93585171125824	0.0								334.93585171125824							
	47	0.0	8.680648669999998	232.9176020286889	0.0	1.05	232.9176020286889	1	232.9176020286889	0.0								232.9176020286889							
	1	0.0	-0.671255588	28.794115318045122	0.0	1.0468	28.79411531804512	1	28.794115318045122	0.0								28.794115318045122							
	15	0.0	-80.1844323	3.5135615472979964	0.0	1.0428	3.513561547297996	1	3.5135615472979964	0.0								3.5135615472979964							
	70	0.0	9.06316165	0.1551742792647293	0.0	1.05	0.1551742792647293	1	0.1551742792647293	0.0								0.1551742792647293							
	69	0.0	0.0	0.02594534736313834	0.0	1.05	0.02594534736313834	1	0.02594534736313834	0.0								0.02594534736313834							
	50	0.0	-9.843150470000001	115.36286575390892	0.0	1.05	115.36286575390892	1	115.36286575390892	0.0								115.36286575390892							
	40	0.0	0.0	271.59145943358885	0.0	1.0473	271.59145943358885	1	271.59145943358885	0.0								271.59145943358885							
	42	0.0	0.0	0.02487352374312216	0.0	1.05	0.02487352374312216	1	0.02487352374312216	0.0								0.02487352374312216							
	37	0.0	0.0	0.04132161855131035	0.0	1.05	0.04132161855131035	1	0.04132161855131035	0.0								0.04132161855131035							
	63	0.0	-19.1667873	14.974847565450089	0.0	1.0422	14.974847565450089	1	14.974847565450089	0.0								14.974847565450089							
	45	0.0	0.0	0.02341761710151169	0.0	1.05	0.02341761710151169	1	0.02341761710151169	0.0								0.02341761710151169							
	47	0.0	4.19340042	0.23166119938542476	0.0	1.05	0.23166119938542476	1	0.23166119938542476	0.0								0.23166119938542476							
	37	0.0	-14.277477	160.19353353531375	0.0	1.05	160.19353353531375	1	160.19353353531375	0.0								160.19353353531375							
	71	0.0	0.0	0.022009880972078785	0.0	1.05	0.022009880972078785	1	0.022009880972078785	0.0								0.022009880972078785							
	23	0.0	0.0	152.26010263516034	0.0	1.05	152.26010263516034	1	152.26010263516034	0.0								152.26010263516034							
	25	0.0	-5.894720170000001	78.98694522433433	0.0	1.05	78.98694522433433	1	78.98694522433433	0.0								78.98694522433433							
	23	0.0	2.8812994199999995	17.207802400569758	0.0	1.05	17.207802400569758	1	17.207802400569758	0.0								17.207802400569758							
	61	0.0	0.0	457.37542455349853	0.0	1.035	457.37542455349853	1	457.37542455349853	0.0								457.37542455349853							
	23	0.0	2.8812994199999995	17.207802400569758	0.0	1.05	17.207802400569758	1	17.207802400569758	0.0								17.207802400569758							
	2	0.0	1.87503324	95.08925198514346	0.0	1.0467	95.08925198514346	1	95.08925198514346	0.0								95.08925198514346							
	63	0.0	-60.2943306	14.974847565450089	0.0	1.0422	14.974847565450089	1	14.974847565450089	0.0								14.974847565450089							
	2	0.0	1.87503324	95.08925198514346	0.0	1.0467	95.08925198514346	1	95.08925198514346	0.0								95.08925198514346							
	71	0.0	-37.4633096	0.022009880972078785	0.0	1.05	0.022009880972078785	1	0.022009880972078785	0.0								0.022009880972078785							
	13	0.0	-19.017851000000004	179.07982528158357	0.0	1.0347	179.07982528158357	1	179.07982528158357	0.0								179.07982528158357							
	21	0.0	0.0	400.0	0.0	1.05	400.0	1	400.0	0.0								400.0							
	47	0.0	4.19340042	0.23166119938542476	0.0	1.05	0.23166119938542476	1	0.23166119938542476	0.0								0.23166119938542476							
	70	0.0	0.0	0.1551742792647293	0.0	1.05	0.1551742792647293	1	0.1551742792647293	0.0								0.1551742792647293							
	47	0.0	0.0	232.9176020286889	0.0	1.05	232.9176020286889	1	232.9176020286889	0.0								232.9176020286889							
	13	0.0	-19.017851000000004	179.07982528158357	0.0	1.0347	179.07982528158357	1	179.07982528158357	0.0								179.07982528158357							
	47	0.0	-30.6222037	232.9176020286889	0.0	1.05	232.9176020286889	1	232.9176020286889	0.0								232.9176020286889							
	55	0.0	0.0	85.57967766494744	0.0	0.9568	85.57967766494744	1	85.57967766494744	0.0								85.57967766494744							
	49	0.0	-15.51166	45.80177734635654	0.0	1.05	45.80177734635654	1	45.80177734635654	0.0								45.80177734635654							
	31	0.0	0.0	95.5789098958818	0.0	0.9699	95.5789098958818	1	95.5789098958818	0.0								95.5789098958818							
	7	0.0	0.0	189.07691639042213	0.0	1.05	189.07691639042213	1	189.07691639042213	0.0								189.07691639042213							
	37	0.0	-14.277477	160.19353353531375	0.0	1.05	160.19353353531375	1	160.19353353531375	0.0								160.19353353531375							
	23	0.0	-37.3756648	152.26010263516034	0.0	1.05	152.26010263516034	1	152.26010263516034	0.0								152.26010263516034							
	39	0.0	0.0	41.20223378004739	0.0	1.0437	41.20223378004739	1	41.20223378004739	0.0								41.20223378004739							
	49	0.0	-15.51166	45.80177734635654	0.0	1.05	45.80177734635654	1	45.80177734635654	0.0								45.80177734635654							
	23	0.0	2.8812994199999995	17.207802400569758	0.0	1.05	17.207802400569758	1	17.207802400569758	0.0								17.207802400569758							
	26	0.0	-2.19561568	113.3231990691993	0.0	1.05	113.32319906919929	1	113.3231990691993	0.0								113.3231990691993							
	66	0.0	0.0	0.02664721196832096	0.0	1.05	0.026647211968320962	1	0.02664721196832096	0.0								0.02664721196832096							
	39	0.0	-19.0702274	41.20223378004739	0.0	1.0437	41.20223378004739	1	41.20223378004739	0.0								41.20223378004739							
	26	0.0	-2.19561568	113.3231990691993	0.0	1.05	113.32319906919929	1	113.3231990691993	0.0								113.3231990691993							
	63	0.0	-19.1667873	14.974847565450089	0.0	1.0422	14.974847565450089	1	14.974847565450089	0.0								14.974847565450089							
	18	0.0	0.0	0.02605230071592399	0.0	1.05	0.02605230071592399	1	0.02605230071592399	0.0								0.02605230071592399							
	1	0.0	-0.671255588	28.794115318045122	0.0	1.0468	28.79411531804512	1	28.794115318045122	0.0								28.794115318045122							
	47	0.0	4.19340042	0.23166119938542476	0.0	1.05	0.23166119938542476	1	0.23166119938542476	0.0								0.23166119938542476							
	64	0.0	0.0	543.0931114892736	0.0	1.0449	543.0931114892736	1	543.0931114892736	0.0								543.0931114892736							
	46	0.0	6.97303251	50.0	0.0	1.05	50.0	1	50.0	0.0								50.0							
	70	0.0	5.46006479	50.0	0.0	1.05	50.0	1	50.0	0.0								50.0							
	46	0.0	6.97303251	50.0	0.0	1.05	50.0	1	50.0	0.0								50.0							
	22	0.0	0.0	50.0	0.0	1.05	50.0	1	50.0	0.0								50.0							
	22	0.0	6.79350178	50.0	0.0	1.05	50.0	1	50.0	0.0								50.0							
	22	0.0	6.79350178	50.0	0.0	1.05	50.0	1	50.0	0.0								50.0							
	46	0.0	6.97303251	50.0	0.0	1.05	50.0	1	50.0	0.0								50.0							
	46	0.0	6.97303251	50.0	0.0	1.05	50.0	1	50.0	0.0								50.0							
	70	0.0	5.46006479	50.0	0.0	1.05	50.0	1	50.0	0.0								50.0							
	25	0.0	-4.60477681	50.0	0.0	1.05	50.0	1	50.0	0.0								50.0							
	39	0.0	-16.0537033	50.0	0.0	1.0437	50.0	1	50.0	0.0								50.0							
	22	0.0	6.79350178	50.0	0.0	1.05	50.0	1	50.0	0.0								50.0							
	22	0.0	6.79350178	50.0	0.0	1.05	50.0	1	50.0	0.0								50.0							
	70	0.0	5.46006479	50.0	0.0	1.05	50.0	1	50.0	0.0								50.0							
	39	0.0	-16.0537033	50.0	0.0	1.0437	50.0	1	50.0	0.0								50.0							
	22	0.0	6.79350178	50.0	0.0	1.05	50.0	1	50.0	0.0								50.0							
	46	0.0	6.97303251	50.0	0.0	1.05	50.0	1	50.0	0.0								50.0							
	39	0.0	-16.0537033	50.0	0.0	1.0437	50.0	1	50.0	0.0								50.0							
	70	0.0	5.46006479	50.0	0.0	1.05	50.0	1	50.0	0.0								50.0							
	46	0.0	0.0	50.0	0.0	1.05	50.0	1	50.0	0.0								50.0							
	1	0.0	-0.0	0.1835003090607836	0.0	1.0468	0.1835003090607836	1	0.2595086257734147	0.0															
	68	0.0	-0.0	0.010434525226620134	0.0	1.0	0.010434525226620134	1	0.014756647092410388	0.0															
	3	0.0	-0.0	0.034114078279004124	0.0	1.0	0.034114078279004124	1	0.04824459217002505	0.0															
	62	0.0	-0.0	315.53104421779557	0.0	1.0	315.53104421779557	1	446.22828208255123	0.0															
	51	0.0	-0.0	0.06093449641690364	0.0	1.0	0.06093449641690364	1	0.0861743912491599	0.0															
	60	0.0	-0.0	296.21880436279866	0.0	1.0	296.21880436279866	1	418.91665055981247	0.0															
	61	0.0	-0.0	0.013529557547845402	0.0	1.035	0.013529557547845402	1	0.019133683777070244	0.0															
	68	0.0	-0.0	0.0105339288686419	0.0	1.0	0.0105339288686419	1	0.014897225071106848	0.0															
	72	0.0	-0.0	234.21730321607805	0.0	1.0	234.21730321607805	1	331.23328675062913	0.0															
	61	0.0	-0.0	0.16855150103471878	0.0	1.035	0.16855150103471878	1	0.2383678187216421	0.0															
	18	0.0	-0.0	0.020802792450565682	0.0	1.05	0.020802792450565682	1	0.029419591218822625	0.0															
	18	0.0	-0.0	0.02204569053849503	0.0	1.05	0.02204569053849503	1	0.031177314551419893	0.0															
	1	0.0	-0.0	0.2085838485115883	0.0	1.0468	0.2085838485115883	1	0.29498210745706327	0.0															
	61	0.0	-0.0	0.013645156732773207	0.0	1.035	0.013645156732773207	1	0.01929716571219442	0.0															
	18	0.0	-0.0	0.017698997709530644	0.0	1.05	0.017698997709530644	1	0.025030162601228582	0.0															
	61	0.0	-0.0	0.013083501540738429	0.0	1.035	0.013083501540738429	1	0.018502865322241574	0.0															
	61	0.0	-0.0	147.17185641979668	0.0	1.035	147.17185641979668	1	208.13243534850236	0.0															
	61	0.0	-0.0	0.013747400571563238	0.0	1.035	0.013747400571563238	1	0.01944176033568037	0.0															
	1	0.0	-0.0	38.54745716743046	0.0	1.0468	38.54745716743046	1	54.51433672117613	0.0															
	18	0.0	-0.0	0.01830011444864873	0.0	1.05	0.01830011444864873	1	0.02588027004625887	0.0															
	2	0.0	-0.0	84.01205002425293	0.0	1.0467	84.01205002425293	1	118.8109805470654	0.0															
	13	0.0	-0.0	843.0530438290532	0.0	1.0347	843.0530438290532	1	1192.2570483829666	0.0															
	61	0.0	-0.0	0.013645097959384789	0.0	1.035	0.013645097959384789	1	0.019297082594071414	0.0															
	68	0.0	-0.0	0.01056394080788179	0.0	1.0	0.01056394080788179	1	0.01493966836261302	0.0															
	4	0.0	-0.0	107.02452345962867	0.0	1.0	107.02452345962868	1	151.35553258312436	0.0															
	37	0.0	-0.0	228.1155582497863	0.0	1.05	228.1155582497863	1	322.6041162651576	0.0															
	61	0.0	-0.0	0.013518831379044806	0.0	1.035	0.013518831379044806	1	0.019118514683680136	0.0															
	39	0.0	-0.0	254.04096648531248	0.0	1.0437	254.04096648531248	1	359.26818020189785	0.0															
	18	0.0	-0.0	0.017111123185671342	0.0	1.05	0.017111123185671342	1	0.024198782476613136	0.0															
	61	0.0	-0.0	0.013490206742036078	0.0	1.035	0.013490206742036078	1	0.019078033333804388	0.0															
	2	0.0	-0.0	0.3310264034397909	0.0	1.0467	0.3310264034397909	1	0.4681420292481401	0.0															
	18	0.0	-0.0	0.02116810534036895	0.0	1.05	0.02116810534036895	1	0.029936221662092113	0.0															
	65	0.0	-0.0	0.02644428386673278	0.0	1.0	0.02644428386673278	1	0.03739786489157753	0.0															
	18	0.0	-0.0	0.021422283800443608	0.0	1.05	0.021422283800443608	1	0.030295684287592804	0.0															
	61	0.0	-0.0	0.013933399910128486	0.0	1.035	0.013933399910128486	1	0.01970480312287177	0.0															
	19	0.0	-0.0	0.13731152426216472	0.0	1.0	0.13731152426216472	1	0.19418781988167566	0.0															
	18	0.0	-0.0	0.021158081403547226	0.0	1.05	0.021158081403547226	1	0.029922045674690458	0.0															
	61	0.0	-0.0	0.013793825696870076	0.0	1.035	0.013793825696870076	1	0.019507415377524172	0.0															
	67	0.0	-0.0	0.11544589853177081	0.0	1.0	0.11544589853177083	1	0.1632651554239785	0.0															
	62	0.0	-0.0	0.02595183794070112	0.0	1.0	0.02595183794070112	1	0.03670144118424818	0.0															
	56	0.0	-0.0	109.220390128579	0.0	1.0	109.220390128579	1	154.46095700751695	0.0															
	61	0.0	-0.0	0.01388930807795696	0.0	1.035	0.01388930807795696	1	0.019642447855824918	0.0															
	72	0.0	-0.0	142.40151605467304	0.0	1.0	142.40151605467304	1	201.38615530700866	0.0															
	61	0.0	-0.0	0.013730676085697306	0.0	1.035	0.013730676085697308	1	0.019418108340945053	0.0															
	61	0.0	-0.0	0.013989514363234817	0.0	1.035	0.013989514363234815	1	0.01978416094349989	0.0															
	58	0.0	-0.0	0.07668104289096134	0.0	1.0	0.07668104289096134	1	0.10844337083331054	0.0															
	68	0.0	-0.0	0.01033622052832332	0.0	1.0	0.01033622052832332	1	0.014617623254834037	0.0															
	58	0.0	-0.0	0.13379320927088295	0.0	1.0	0.13379320927088295	1	0.18921217110430438	0.0															
	18	0.0	-0.0	0.018837224577438378	0.0	1.05	0.018837224577438378	1	0.026639858474881147	0.0															
	62	0.0	-0.0	142.10466083466525	0.0	1.0	142.10466083466525	1	200.96633862881242	0.0															
	72	0.0	-0.0	23.702960040000896	0.0	1.0	23.702960040000896	1	33.52104755695679	0.0															
	61	0.0	-0.0	0.013842211521085678	0.0	1.035	0.013842211521085676	1	0.019575843266356474	0.0															
	62	0.0	-0.0	2.784711253820097	0.0	1.0	2.784711253820097	1	3.938176422445368	0.0															
	18	0.0	-0.0	0.01914489512779503	0.0	1.05	0.01914489512779503	1	0.02707497033993832	0.0															
	1	0.0	-0.0	93.02792019380351	0.0	1.0468	93.02792019380351	1	131.56134641743887	0.0															
	57	0.0	-0.0	0.03111429910787465	0.0	1.0	0.031114299107874648	1	0.04400226378208943	0.0															
	68	0.0	-0.0	0.010535374882448992	0.0	1.0	0.010535374882448992	1	0.01489927004344422	0.0															
	68	0.0	-0.0	853.6202004472544	0.0	1.0	853.6202004472544	1	1207.2012645881473	0.0															
	68	0.0	-0.0	0.010347295090845674	0.0	1.0	0.010347295090845674	1	0.0146332850513505	0.0															
	22	0.0	-0.0	0.04275057412407097	0.0	1.05	0.04275057412407097	1	0.06045844172549746	0.0															
];

%% branch data
%    f_bus    t_bus    r    x    b    rateA    rateB    rateC    ratio    angle    status    angmin    angmax
mpc.branch = [
	67	68	2.645	21.16	0.0001568998109640832	288.6751345948129	288.6751345948129	288.6751345948129	0	0	1.0	-89.99963750135457	89.99963750135457								
	12	13	3.174	25.392	0.0001890359168241966	288.6751345948129	288.6751345948129	288.6751345948129	0	0	1.0	-89.99963750135457	89.99963750135457								
	1	3	10.4742	40.18284	0.00029930686830497794	101.03629710818451	101.03629710818451	101.03629710818451	0	0	1.0	-89.99963750135457	89.99963750135457								
	31	32	3.04704	11.61684	8.926696072253729e-5	101.03629710818451	101.03629710818451	101.03629710818451	0	0	1.0	-89.99963750135457	89.99963750135457								
	63	69	3.174	25.921	0.00019470699432892253	288.6751345948129	288.6751345948129	288.6751345948129	0	0	1.0	-89.99963750135457	89.99963750135457								
	4	9	5.14188	19.80576	0.00014702793530770847	101.03629710818451	101.03629710818451	101.03629710818451	0	0	1.0	-89.99963750135457	89.99963750135457								
	62	64	2.645	31.211	0.00015500945179584122	288.6751345948129	288.6751345948129	288.6751345948129	0	0	1.0	-89.99963750135457	89.99963750135457								
	8	9	8.18892	31.422600000000003	0.00023629489603024578	101.03629710818451	101.03629710818451	101.03629710818451	0	0	1.0	-89.99963750135457	89.99963750135457								
	5	10	4.38012	16.75872	0.00012602394454946442	101.03629710818451	101.03629710818451	101.03629710818451	0	0	1.0	-89.99963750135457	89.99963750135457								
	15	21	3.174	25.921	0.00019470699432892253	288.6751345948129	288.6751345948129	288.6751345948129	0	0	1.0	-89.99963750135457	89.99963750135457								
	39	45	3.174	25.921	0.00019470699432892253	288.6751345948129	288.6751345948129	288.6751345948129	0	0	1.0	-89.99963750135457	89.99963750135457								
	71	73	1.0	4.760999999999999	0.000147	416.8468943549098	416.8468943549098	416.8468943549098	0	0	1.0	-89.99963750135457	89.99963750135457								
	32	34	8.18892	31.422600000000003	0.00023629489603024578	101.03629710818451	101.03629710818451	101.03629710818451	0	0	1.0	-89.99963750135457	89.99963750135457								
	52	57	5.14188	19.80576	0.00014702793530770847	101.03629710818451	101.03629710818451	101.03629710818451	0	0	1.0	-89.99963750135457	89.99963750135457								
	25	27	10.4742	40.18284	0.00029930686830497794	101.03629710818451	101.03629710818451	101.03629710818451	0	0	1.0	-89.99963750135457	89.99963750135457								
	16	19	1.587	12.167	9.262759924385635e-5	288.6751345948129	288.6751345948129	288.6751345948129	0	0	1.0	-89.99963750135457	89.99963750135457								
	18	21	1.587	13.754	0.00010396975425330812	288.6751345948129	288.6751345948129	288.6751345948129	0	0	1.0	-89.99963750135457	89.99963750135457								
	44	47	1.587	11.638	8.695652173913041e-5	288.6751345948129	288.6751345948129	288.6751345948129	0	0	1.0	-89.99963750135457	89.99963750135457								
	56	58	8.18892	31.422600000000003	0.00023629489603024578	101.03629710818451	101.03629710818451	101.03629710818451	0	0	1.0	-89.99963750135457	89.99963750135457								
	43	44	2.645	21.16	0.0001568998109640832	288.6751345948129	288.6751345948129	288.6751345948129	0	0	1.0	-89.99963750135457	89.99963750135457								
	53	58	4.38012	16.75872	0.00012602394454946442	101.03629710818451	101.03629710818451	101.03629710818451	0	0	1.0	-89.99963750135457	89.99963750135457								
	27	33	5.90364	22.66236	0.00016803192606595254	101.03629710818451	101.03629710818451	101.03629710818451	0	0	1.0	-89.99963750135457	89.99963750135457								
	59	62	2.645	22.218	0.00016635160680529302	288.6751345948129	288.6751345948129	288.6751345948129	0	0	1.0	-89.99963750135457	89.99963750135457								
	28	33	5.14188	19.80576	0.00014702793530770847	101.03629710818451	101.03629710818451	101.03629710818451	0	0	1.0	-89.99963750135457	89.99963750135457								
	2	4	6.2845200000000006	24.18588	0.00017853392144507457	101.03629710818451	101.03629710818451	101.03629710818451	0	0	1.0	-89.99963750135457	89.99963750135457								
	40	41	1.587	13.754	0.00010396975425330812	288.6751345948129	288.6751345948129	288.6751345948129	0	0	1.0	-89.99963750135457	89.99963750135457								
	42	45	1.587	13.754	0.00010396975425330812	288.6751345948129	288.6751345948129	288.6751345948129	0	0	1.0	-89.99963750135457	89.99963750135457								
	26	28	6.2845200000000006	24.18588	0.00017853392144507457	101.03629710818451	101.03629710818451	101.03629710818451	0	0	1.0	-89.99963750135457	89.99963750135457								
	73	21	6.348	51.313	0.00038374291115311906	288.6751345948129	288.6751345948129	288.6751345948129	0	0	1.0	-89.99963750135457	89.99963750135457								
	30	34	2.66616	11.61684	0.01291220331863054	101.03629710818451	101.03629710818451	101.03629710818451	0	0	1.0	-89.99963750135457	89.99963750135457								
	51	57	5.90364	22.66236	0.00016803192606595254	101.03629710818451	101.03629710818451	101.03629710818451	0	0	1.0	-89.99963750135457	89.99963750135457								
	68	71	1.587	11.638	8.695652173913041e-5	288.6751345948129	288.6751345948129	288.6751345948129	0	0	1.0	-89.99963750135457	89.99963750135457								
	11	14	2.645	22.218	0.00016635160680529302	288.6751345948129	288.6751345948129	288.6751345948129	0	0	1.0	-89.99963750135457	89.99963750135457								
	15	16	1.058	8.993	6.805293005671077e-5	288.6751345948129	288.6751345948129	288.6751345948129	0	0	1.0	-89.99963750135457	89.99963750135457								
	63	72	3.7030000000000003	27.508	0.00020604914933837433	288.6751345948129	288.6751345948129	288.6751345948129	0	0	1.0	-89.99963750135457	89.99963750135457								
	1	5	4.18968	16.1874	0.00012077294685990338	101.03629710818451	101.03629710818451	101.03629710818451	0	0	1.0	-89.99963750135457	89.99963750135457								
	50	54	9.522	36.56448	0.0002730518798571728	101.03629710818451	101.03629710818451	101.03629710818451	0	0	1.0	-89.99963750135457	89.99963750135457								
	63	64	1.058	8.993	6.805293005671077e-5	288.6751345948129	288.6751345948129	288.6751345948129	0	0	1.0	-89.99963750135457	89.99963750135457								
	37	47	5.819	46.022999999999996	0.0003440453686200378	288.6751345948129	288.6751345948129	288.6751345948129	0	0	1.0	-89.99963750135457	89.99963750135457								
	64	65	1.587	13.754	0.00010396975425330812	288.6751345948129	288.6751345948129	288.6751345948129	0	0	1.0	-89.99963750135457	89.99963750135457								
	32	33	8.18892	31.422600000000003	0.00023629489603024578	101.03629710818451	101.03629710818451	101.03629710818451	0	0	1.0	-89.99963750135457	89.99963750135457								
	19	20	2.645	21.16	0.0001568998109640832	288.6751345948129	288.6751345948129	288.6751345948129	0	0	1.0	-89.99963750135457	89.99963750135457								
	21	22	4.760999999999999	35.972	0.00026843100189035914	288.6751345948129	288.6751345948129	288.6751345948129	0	0	1.0	-89.99963750135457	89.99963750135457								
	60	61	3.174	25.392	0.0001890359168241966	288.6751345948129	288.6751345948129	288.6751345948129	0	0	1.0	-89.99963750135457	89.99963750135457								
	63	69	3.174	25.921	0.00019470699432892253	288.6751345948129	288.6751345948129	288.6751345948129	0	0	1.0	-89.99963750135457	89.99963750135457								
	66	69	1.587	13.754	0.00010396975425330812	288.6751345948129	288.6751345948129	288.6751345948129	0	0	1.0	-89.99963750135457	89.99963750135457								
	68	71	1.587	11.638	8.695652173913041e-5	288.6751345948129	288.6751345948129	288.6751345948129	0	0	1.0	-89.99963750135457	89.99963750135457								
	19	20	2.645	21.16	0.0001568998109640832	288.6751345948129	288.6751345948129	288.6751345948129	0	0	1.0	-89.99963750135457	89.99963750135457								
	49	51	10.4742	40.18284	0.00029930686830497794	101.03629710818451	101.03629710818451	101.03629710818451	0	0	1.0	-89.99963750135457	89.99963750135457								
	29	34	4.38012	16.75872	0.00012602394454946442	101.03629710818451	101.03629710818451	101.03629710818451	0	0	1.0	-89.99963750135457	89.99963750135457								
	8	10	8.18892	31.422600000000003	0.00023629489603024578	101.03629710818451	101.03629710818451	101.03629710818451	0	0	1.0	-89.99963750135457	89.99963750135457								
	38	40	2.645	31.211	0.00015500945179584122	288.6751345948129	288.6751345948129	288.6751345948129	0	0	1.0	-89.99963750135457	89.99963750135457								
	67	68	2.645	21.16	0.0001568998109640832	288.6751345948129	288.6751345948129	288.6751345948129	0	0	1.0	-89.99963750135457	89.99963750135457								
	6	10	2.66616	11.61684	0.01291220331863054	101.03629710818451	101.03629710818451	101.03629710818451	0	0	1.0	-89.99963750135457	89.99963750135457								
	13	39	5.29	39.675	0.00029867674858223065	288.6751345948129	288.6751345948129	288.6751345948129	0	0	1.0	-89.99963750135457	89.99963750135457								
	40	43	1.587	12.167	9.262759924385635e-5	288.6751345948129	288.6751345948129	288.6751345948129	0	0	1.0	-89.99963750135457	89.99963750135457								
	49	50	0.57132	2.66616	0.0024207099348876287	101.03629710818451	101.03629710818451	101.03629710818451	0	0	1.0	-89.99963750135457	89.99963750135457								
	59	61	3.174	25.392	0.0001890359168241966	288.6751345948129	288.6751345948129	288.6751345948129	0	0	1.0	-89.99963750135457	89.99963750135457								
	60	71	6.348	51.313	0.00038374291115311906	288.6751345948129	288.6751345948129	288.6751345948129	0	0	1.0	-89.99963750135457	89.99963750135457								
	56	57	8.18892	31.422600000000003	0.00023629489603024578	101.03629710818451	101.03629710818451	101.03629710818451	0	0	1.0	-89.99963750135457	89.99963750135457								
	44	47	1.587	11.638	8.695652173913041e-5	288.6751345948129	288.6751345948129	288.6751345948129	0	0	1.0	-89.99963750135457	89.99963750135457								
	1	2	0.57132	2.66616	0.0024207099348876287	101.03629710818451	101.03629710818451	101.03629710818451	0	0	1.0	-89.99963750135457	89.99963750135457								
	65	66	1.058	7.406000000000001	5.671077504725896e-5	288.6751345948129	288.6751345948129	288.6751345948129	0	0	1.0	-89.99963750135457	89.99963750135457								
	15	24	3.7030000000000003	27.508	0.00020604914933837433	288.6751345948129	288.6751345948129	288.6751345948129	0	0	1.0	-89.99963750135457	89.99963750135457								
	50	52	6.2845200000000006	24.18588	0.00017853392144507457	101.03629710818451	101.03629710818451	101.03629710818451	0	0	1.0	-89.99963750135457	89.99963750135457								
	39	48	3.7030000000000003	27.508	0.00020604914933837433	288.6751345948129	288.6751345948129	288.6751345948129	0	0	1.0	-89.99963750135457	89.99963750135457								
	18	21	1.587	13.754	0.00010396975425330812	288.6751345948129	288.6751345948129	288.6751345948129	0	0	1.0	-89.99963750135457	89.99963750135457								
	36	37	3.174	25.392	0.0001890359168241966	288.6751345948129	288.6751345948129	288.6751345948129	0	0	1.0	-89.99963750135457	89.99963750135457								
	55	56	3.04704	11.61684	8.926696072253729e-5	101.03629710818451	101.03629710818451	101.03629710818451	0	0	1.0	-89.99963750135457	89.99963750135457								
	66	47	6.877	55.016	0.00041209829867674865	288.6751345948129	288.6751345948129	288.6751345948129	0	0	1.0	-89.99963750135457	89.99963750135457								
	13	23	5.819	46.022999999999996	0.0003440453686200378	288.6751345948129	288.6751345948129	288.6751345948129	0	0	1.0	-89.99963750135457	89.99963750135457								
	25	29	4.18968	16.1874	0.00012077294685990338	101.03629710818451	101.03629710818451	101.03629710818451	0	0	1.0	-89.99963750135457	89.99963750135457								
	23	41	5.29	39.146	0.00029300567107750475	288.6751345948129	288.6751345948129	288.6751345948129	0	0	1.0	-89.99963750135457	89.99963750135457								
	16	17	1.587	13.754	0.00010396975425330812	288.6751345948129	288.6751345948129	288.6751345948129	0	0	1.0	-89.99963750135457	89.99963750135457								
	26	30	9.522	36.56448	0.0002730518798571728	101.03629710818451	101.03629710818451	101.03629710818451	0	0	1.0	-89.99963750135457	89.99963750135457								
	35	37	3.174	25.392	0.0001890359168241966	288.6751345948129	288.6751345948129	288.6751345948129	0	0	1.0	-89.99963750135457	89.99963750135457								
	49	53	4.18968	16.1874	0.00012077294685990338	101.03629710818451	101.03629710818451	101.03629710818451	0	0	1.0	-89.99963750135457	89.99963750135457								
	17	18	1.058	7.406000000000001	5.671077504725896e-5	288.6751345948129	288.6751345948129	288.6751345948129	0	0	1.0	-89.99963750135457	89.99963750135457								
	25	26	0.57132	2.66616	0.0024207099348876287	101.03629710818451	101.03629710818451	101.03629710818451	0	0	1.0	-89.99963750135457	89.99963750135457								
	42	45	1.587	13.754	0.00010396975425330812	288.6751345948129	288.6751345948129	288.6751345948129	0	0	1.0	-89.99963750135457	89.99963750135457								
	43	44	2.645	21.16	0.0001568998109640832	288.6751345948129	288.6751345948129	288.6751345948129	0	0	1.0	-89.99963750135457	89.99963750135457								
	39	40	1.058	8.993	6.805293005671077e-5	288.6751345948129	288.6751345948129	288.6751345948129	0	0	1.0	-89.99963750135457	89.99963750135457								
	41	42	1.058	7.406000000000001	5.671077504725896e-5	288.6751345948129	288.6751345948129	288.6751345948129	0	0	1.0	-89.99963750135457	89.99963750135457								
	36	47	6.348	51.313	0.00038374291115311906	288.6751345948129	288.6751345948129	288.6751345948129	0	0	1.0	-89.99963750135457	89.99963750135457								
	61	71	5.819	46.022999999999996	0.0003440453686200378	288.6751345948129	288.6751345948129	288.6751345948129	0	0	1.0	-89.99963750135457	89.99963750135457								
	12	23	6.348	51.313	0.00038374291115311906	288.6751345948129	288.6751345948129	288.6751345948129	0	0	1.0	-89.99963750135457	89.99963750135457								
	54	58	2.66616	11.61684	0.01291220331863054	101.03629710818451	101.03629710818451	101.03629710818451	0	0	1.0	-89.99963750135457	89.99963750135457								
	14	16	2.645	31.211	0.00015500945179584122	288.6751345948129	288.6751345948129	288.6751345948129	0	0	1.0	-89.99963750135457	89.99963750135457								
	7	8	3.04704	11.61684	8.926696072253729e-5	101.03629710818451	101.03629710818451	101.03629710818451	0	0	1.0	-89.99963750135457	89.99963750135457								
	11	13	3.174	25.392	0.0001890359168241966	288.6751345948129	288.6751345948129	288.6751345948129	0	0	1.0	-89.99963750135457	89.99963750135457								
	20	23	1.587	11.638	8.695652173913041e-5	288.6751345948129	288.6751345948129	288.6751345948129	0	0	1.0	-89.99963750135457	89.99963750135457								
	2	6	9.522	36.56448	0.0002730518798571728	101.03629710818451	101.03629710818451	101.03629710818451	0	0	1.0	-89.99963750135457	89.99963750135457								
	20	23	1.587	11.638	8.695652173913041e-5	288.6751345948129	288.6751345948129	288.6751345948129	0	0	1.0	-89.99963750135457	89.99963750135457								
	45	46	4.760999999999999	35.972	0.00026843100189035914	288.6751345948129	288.6751345948129	288.6751345948129	0	0	1.0	-89.99963750135457	89.99963750135457								
	65	70	7.406000000000001	55.544999999999995	0.00041776937618147455	288.6751345948129	288.6751345948129	288.6751345948129	0	0	1.0	-89.99963750135457	89.99963750135457								
	66	69	1.587	13.754	0.00010396975425330812	288.6751345948129	288.6751345948129	288.6751345948129	0	0	1.0	-89.99963750135457	89.99963750135457								
	7	27	7.998480000000001	30.66084	0.00023104389834068472	101.03629710818451	101.03629710818451	101.03629710818451	0	0	1.0	-89.99963750135457	89.99963750135457								
	64	67	1.587	12.167	9.262759924385635e-5	288.6751345948129	288.6751345948129	288.6751345948129	0	0	1.0	-89.99963750135457	89.99963750135457								
	39	45	3.174	25.921	0.00019470699432892253	288.6751345948129	288.6751345948129	288.6751345948129	0	0	1.0	-89.99963750135457	89.99963750135457								
	17	22	7.406000000000001	55.544999999999995	0.00041776937618147455	288.6751345948129	288.6751345948129	288.6751345948129	0	0	1.0	-89.99963750135457	89.99963750135457								
	35	38	2.645	22.218	0.00016635160680529302	288.6751345948129	288.6751345948129	288.6751345948129	0	0	1.0	-89.99963750135457	89.99963750135457								
	41	46	7.406000000000001	55.544999999999995	0.00041776937618147455	288.6751345948129	288.6751345948129	288.6751345948129	0	0	1.0	-89.99963750135457	89.99963750135457								
	3	9	5.90364	22.66236	0.00016803192606595254	101.03629710818451	101.03629710818451	101.03629710818451	0	0	1.0	-89.99963750135457	89.99963750135457								
	15	21	3.174	25.921	0.00019470699432892253	288.6751345948129	288.6751345948129	288.6751345948129	0	0	1.0	-89.99963750135457	89.99963750135457								
	69	70	4.760999999999999	35.972	0.00026843100189035914	288.6751345948129	288.6751345948129	288.6751345948129	0	0	1.0	-89.99963750135457	89.99963750135457								
	24	3	0.008	0.336	0.0	0.4	0.4	0.4	1.0	0.0	1.0	-45.0	45.0								
	35	33	0.008	0.336	0.0	0.4	0.4	0.4	1.0	0.0	1.0	-45.0	45.0								
	59	58	0.008	0.336	0.0	0.4	0.4	0.4	1.0	0.0	1.0	-45.0	45.0								
	59	57	0.008	0.336	0.0	0.4	0.4	0.4	1.0	0.0	1.0	-45.0	45.0								
	12	9	0.008	0.336	0.0	0.4	0.4	0.4	1.0	0.0	1.0	-45.0	45.0								
	60	58	0.008	0.336	0.0	0.4	0.4	0.4	1.0	0.0	1.0	-45.0	45.0								
	11	9	0.008	0.336	0.0	0.4	0.4	0.4	1.0	0.0	1.0	-45.0	45.0								
	72	51	0.008	0.336	0.0	0.4	0.4	0.4	1.0	0.0	1.0	-45.0	45.0								
	35	34	0.008	0.336	0.0	0.4	0.4	0.4	1.0	0.0	1.0	-45.0	45.0								
	12	10	0.008	0.336	0.0	0.4	0.4	0.4	1.0	0.0	1.0	-45.0	45.0								
	36	34	0.008	0.336	0.0	0.4	0.4	0.4	1.0	0.0	1.0	-45.0	45.0								
	60	57	0.008	0.336	0.0	0.4	0.4	0.4	1.0	0.0	1.0	-45.0	45.0								
	48	27	0.008	0.336	0.0	0.4	0.4	0.4	1.0	0.0	1.0	-45.0	45.0								
	11	10	0.008	0.336	0.0	0.4	0.4	0.4	1.0	0.0	1.0	-45.0	45.0								
	36	33	0.008	0.336	0.0	0.4	0.4	0.4	1.0	0.0	1.0	-45.0	45.0								
];

%%-----  OPF Data  -----%%
%% cost data
%    1    startup    shutdown    n    x1    y1    ...    xn    yn
%    2    startup    shutdown    n    c(n-1)    ...    c0
mpc.gencost = [
	2	0.0	0.0	1	58.38461538461539
	2	0.0	0.0	1	58.38461538461539
	2	0.0	0.0	1	58.38461538461539
	2	0.0	0.0	1	58.38461538461539
	2	0.0	0.0	1	24.103448275862068
	2	0.0	0.0	1	24.103448275862068
	2	0.0	0.0	1	24.103448275862068
	2	0.0	0.0	1	24.103448275862068
	2	0.0	0.0	1	58.38461538461539
	2	0.0	0.0	1	47.2
	2	0.0	0.0	1	58.38461538461539
	2	0.0	0.0	1	24.103448275862068
	2	0.0	0.0	1	47.2
	2	0.0	0.0	1	47.2
	2	0.0	0.0	1	58.38461538461539
	2	0.0	0.0	1	47.2
	2	0.0	0.0	1	58.38461538461539
	2	0.0	0.0	1	58.38461538461539
	2	0.0	0.0	1	47.2
	2	0.0	0.0	1	24.103448275862068
	2	0.0	0.0	1	24.103448275862068
	2	0.0	0.0	1	58.38461538461539
	2	0.0	0.0	1	47.2
	2	0.0	0.0	1	58.38461538461539
	2	0.0	0.0	1	24.103448275862068
	2	0.0	0.0	1	58.38461538461539
	2	0.0	0.0	1	24.103448275862068
	2	0.0	0.0	1	47.2
	2	0.0	0.0	1	58.38461538461539
	2	0.0	0.0	1	16.902077151335313
	2	0.0	0.0	1	58.38461538461539
	2	0.0	0.0	1	58.38461538461539
	2	0.0	0.0	1	24.103448275862068
	2	0.0	0.0	1	58.38461538461539
	2	0.0	0.0	1	24.103448275862068
	2	0.0	0.0	1	58.38461538461539
	2	0.0	0.0	1	58.38461538461539
	2	0.0	0.0	1	58.38461538461539
	2	0.0	0.0	1	47.2
	2	0.0	0.0	1	58.38461538461539
	2	0.0	0.0	1	24.103448275862068
	2	0.0	0.0	1	58.38461538461539
	2	0.0	0.0	1	58.38461538461539
	2	0.0	0.0	1	58.38461538461539
	2	0.0	0.0	1	24.103448275862068
	2	0.0	0.0	1	47.2
	2	0.0	0.0	1	58.38461538461539
	2	0.0	0.0	1	24.103448275862068
	2	0.0	0.0	1	58.38461538461539
	2	0.0	0.0	1	47.2
	2	0.0	0.0	1	24.103448275862068
	2	0.0	0.0	1	58.38461538461539
	2	0.0	0.0	1	24.103448275862068
	2	0.0	0.0	1	0.0
	2	0.0	0.0	1	0.0
	2	0.0	0.0	1	0.0
	2	0.0	0.0	1	0.0
	2	0.0	0.0	1	0.0
	2	0.0	0.0	1	0.0
	2	0.0	0.0	1	0.0
	2	0.0	0.0	1	0.0
	2	0.0	0.0	1	0.0
	2	0.0	0.0	1	0.0
	2	0.0	0.0	1	0.0
	2	0.0	0.0	1	0.0
	2	0.0	0.0	1	0.0
	2	0.0	0.0	1	0.0
	2	0.0	0.0	1	0.0
	2	0.0	0.0	1	0.0
	2	0.0	0.0	1	0.0
	2	0.0	0.0	1	0.0
	2	0.0	0.0	1	0.0
	2	0.0	0.0	1	0.0
	2	0.0	0.0	1	0.0
	2	0.0	0.0	1	0.0
	2	0.0	0.0	1	0.0
	2	0.0	0.0	1	0.0
	2	0.0	0.0	1	2.3
	2	0.0	0.0	1	0.0
	2	0.0	0.0	1	0.0
	2	0.0	0.0	1	0.0
	2	0.0	0.0	1	0.0
	2	0.0	0.0	1	0.0
	2	0.0	0.0	1	0.0
	2	0.0	0.0	1	0.0
	2	0.0	0.0	1	0.0
	2	0.0	0.0	1	0.0
	2	0.0	0.0	1	0.0
	2	0.0	0.0	1	0.0
	2	0.0	0.0	1	0.0
	2	0.0	0.0	1	0.0
	2	0.0	0.0	1	0.0
	2	0.0	0.0	1	0.0
	2	0.0	0.0	1	0.0
	2	0.0	0.0	1	0.0
	2	0.0	0.0	1	0.0
	2	0.0	0.0	1	0.0
	2	0.0	0.0	1	0.0
	2	0.0	0.0	1	0.0
	2	0.0	0.0	1	0.0
	2	0.0	0.0	1	0.0
	2	0.0	0.0	1	0.0
	2	0.0	0.0	1	0.0
	2	0.0	0.0	1	0.0
	2	0.0	0.0	1	0.0
	2	0.0	0.0	1	2.3
	2	0.0	0.0	1	0.0
	2	0.0	0.0	1	0.0
	2	0.0	0.0	1	0.0
	2	0.0	0.0	1	0.0
	2	0.0	0.0	1	0.0
	2	0.0	0.0	1	0.0
	2	0.0	0.0	1	0.0
	2	0.0	0.0	1	0.0
	2	0.0	0.0	1	0.0
	2	0.0	0.0	1	0.0
	2	0.0	0.0	1	0.0
	2	0.0	0.0	1	0.0
	2	0.0	0.0	1	0.0
	2	0.0	0.0	1	0.0
	2	0.0	0.0	1	0.0
	2	0.0	0.0	1	0.0
	2	0.0	0.0	1	0.0
	2	0.0	0.0	1	0.0
	2	0.0	0.0	1	0.0
	2	0.0	0.0	1	0.0
	2	0.0	0.0	1	0.0
	2	0.0	0.0	1	0.0
	2	0.0	0.0	1	2.3
	2	0.0	0.0	1	0.0
	2	0.0	0.0	1	0.0
	2	0.0	0.0	1	0.0
	2	0.0	0.0	1	2.3
];

%% bus names
mpc.bus_name = {
	'buses_ABEL'
	'buses_ADAMS'
	'buses_ADLER'
	'buses_AGRICOLA'
	'buses_AIKEN'
	'buses_ALBER'
	'buses_ALDER'
	'buses_ALGER'
	'buses_ALI'
	'buses_ALLEN'
	'buses_ANNA'
	'buses_ARCHER'
	'buses_ARNE'
	'buses_ARNOLD'
	'buses_ARTHUR'
	'buses_ASSER'
	'buses_ASTON'
	'buses_ASTOR'
	'buses_ATTAR'
	'buses_ATTILA'
	'buses_ATTLEE'
	'buses_AUBREY'
	'buses_AUSTEN'
	'buses_AVERY'
	'buses_BACH'
	'buses_BACON'
	'buses_BAFFIN'
	'buses_BAILEY'
	'buses_BAIN'
	'buses_BAJER'
	'buses_BAKER'
	'buses_BALCH'
	'buses_BALZAC'
	'buses_BANKS'
	'buses_BARDEEN'
	'buses_BARKLA'
	'buses_BARLOW'
	'buses_BARRY'
	'buses_BARTON'
	'buses_BASOV'
	'buses_BATES'
	'buses_BAYLE'
	'buses_BEDE'
	'buses_BEETHOVEN'
	'buses_BEHRING'
	'buses_BELL'
	'buses_BLOCH'
	'buses_BORDET'
	'buses_CABELL'
	'buses_CABOT'
	'buses_CAESAR'
	'buses_CAINE'
	'buses_CALVIN'
	'buses_CAMUS'
	'buses_CAREW'
	'buses_CARREL'
	'buses_CARTER'
	'buses_CARUSO'
	'buses_CARY'
	'buses_CAXTON'
	'buses_CECIL'
	'buses_CHAIN'
	'buses_CHASE'
	'buses_CHIFA'
	'buses_CHUHSI'
	'buses_CLARK'
	'buses_CLAY'
	'buses_CLIVE'
	'buses_COBB'
	'buses_COLE'
	'buses_COMTE'
	'buses_CURIE'
	'buses_CURTISS'
};

%column_names% name fuel type 
mpc.gen_data = {
	'generators_207_CT_2'	'NATURAL_GAS'	'CT'
	'generators_113_CT_4'	'NATURAL_GAS'	'CT'
	'generators_307_CT_2'	'NATURAL_GAS'	'CT'
	'generators_302_CT_3'	'NATURAL_GAS'	'CT'
	'generators_116_STEAM_1'	'COAL'	'ST'
	'generators_223_STEAM_2'	'COAL'	'ST'
	'generators_101_STEAM_3'	'COAL'	'ST'
	'generators_115_STEAM_3'	'COAL'	'ST'
	'generators_322_CT_6'	'NATURAL_GAS'	'CT'
	'generators_321_CC_1'	'NATURAL_GAS'	'GT'
	'generators_302_CT_4'	'NATURAL_GAS'	'CT'
	'generators_216_STEAM_1'	'COAL'	'ST'
	'generators_218_CC_1'	'NATURAL_GAS'	'GT'
	'generators_213_CC_3'	'NATURAL_GAS'	'GT'
	'generators_315_CT_6'	'NATURAL_GAS'	'CT'
	'generators_221_CC_1'	'NATURAL_GAS'	'GT'
	'generators_223_CT_6'	'NATURAL_GAS'	'CT'
	'generators_213_CT_2'	'NATURAL_GAS'	'CT'
	'generators_323_CC_1'	'NATURAL_GAS'	'GT'
	'generators_123_STEAM_2'	'COAL'	'ST'
	'generators_201_STEAM_3'	'COAL'	'ST'
	'generators_123_CT_5'	'NATURAL_GAS'	'CT'
	'generators_313_CC_1'	'NATURAL_GAS'	'GT'
	'generators_123_CT_4'	'NATURAL_GAS'	'CT'
	'generators_102_STEAM_4'	'COAL'	'ST'
	'generators_315_CT_8'	'NATURAL_GAS'	'CT'
	'generators_102_STEAM_3'	'COAL'	'ST'
	'generators_323_CC_2'	'NATURAL_GAS'	'GT'
	'generators_113_CT_3'	'NATURAL_GAS'	'CT'
	'generators_121_NUCLEAR_1'	'NUCLEAR'	'ST'
	'generators_223_CT_5'	'NATURAL_GAS'	'CT'
	'generators_322_CT_5'	'NATURAL_GAS'	'CT'
	'generators_223_STEAM_1'	'COAL'	'ST'
	'generators_113_CT_2'	'NATURAL_GAS'	'CT'
	'generators_223_STEAM_3'	'COAL'	'ST'
	'generators_307_CT_1'	'NATURAL_GAS'	'CT'
	'generators_301_CT_4'	'NATURAL_GAS'	'CT'
	'generators_207_CT_1'	'NATURAL_GAS'	'CT'
	'generators_107_CC_1'	'NATURAL_GAS'	'GT'
	'generators_213_CT_1'	'NATURAL_GAS'	'CT'
	'generators_123_STEAM_3'	'COAL'	'ST'
	'generators_215_CT_4'	'NATURAL_GAS'	'CT'
	'generators_301_CT_3'	'NATURAL_GAS'	'CT'
	'generators_123_CT_1'	'NATURAL_GAS'	'CT'
	'generators_202_STEAM_3'	'COAL'	'ST'
	'generators_318_CC_1'	'NATURAL_GAS'	'GT'
	'generators_215_CT_5'	'NATURAL_GAS'	'CT'
	'generators_202_STEAM_4'	'COAL'	'ST'
	'generators_315_CT_7'	'NATURAL_GAS'	'CT'
	'generators_118_CC_1'	'NATURAL_GAS'	'GT'
	'generators_101_STEAM_4'	'COAL'	'ST'
	'generators_223_CT_4'	'NATURAL_GAS'	'CT'
	'generators_316_STEAM_1'	'COAL'	'ST'
	'generators_222_HYDRO_4'	NaN	'HY'
	'generators_322_HYDRO_1'	NaN	'HY'
	'generators_222_HYDRO_3'	NaN	'HY'
	'generators_122_HYDRO_1'	NaN	'HY'
	'generators_122_HYDRO_6'	NaN	'HY'
	'generators_122_HYDRO_2'	NaN	'HY'
	'generators_222_HYDRO_2'	NaN	'HY'
	'generators_222_HYDRO_5'	NaN	'HY'
	'generators_322_HYDRO_2'	NaN	'HY'
	'generators_201_HYDRO_4'	NaN	'HY'
	'generators_215_HYDRO_2'	NaN	'HY'
	'generators_122_HYDRO_5'	NaN	'HY'
	'generators_122_HYDRO_4'	NaN	'HY'
	'generators_322_HYDRO_3'	NaN	'HY'
	'generators_215_HYDRO_3'	NaN	'HY'
	'generators_122_HYDRO_3'	NaN	'HY'
	'generators_222_HYDRO_6'	NaN	'HY'
	'generators_215_HYDRO_1'	NaN	'HY'
	'generators_322_HYDRO_4'	NaN	'HY'
	'generators_222_HYDRO_1'	NaN	'HY'
	'generators_101_PV_4'	NaN	'PVe'
	'generators_320_RTPV_5'	NaN	'PVe'
	'generators_103_PV_1'	NaN	'PVe'
	'generators_314_PV_2'	NaN	'PVe'
	'generators_303_WIND_1'	NaN	'WT'
	'generators_312_PV_1'	NaN	'PVe'
	'generators_313_RTPV_3'	NaN	'PVe'
	'generators_320_RTPV_2'	NaN	'PVe'
	'generators_324_PV_1'	NaN	'PVe'
	'generators_313_PV_1'	NaN	'PVe'
	'generators_118_RTPV_5'	NaN	'PVe'
	'generators_118_RTPV_6'	NaN	'PVe'
	'generators_101_PV_2'	NaN	'PVe'
	'generators_313_RTPV_9'	NaN	'PVe'
	'generators_118_RTPV_7'	NaN	'PVe'
	'generators_313_RTPV_11'	NaN	'PVe'
	'generators_313_PV_2'	NaN	'PVe'
	'generators_313_RTPV_10'	NaN	'PVe'
	'generators_101_PV_1'	NaN	'PVe'
	'generators_118_RTPV_3'	NaN	'PVe'
	'generators_102_PV_2'	NaN	'PVe'
	'generators_113_PV_1'	NaN	'PVe'
	'generators_313_RTPV_7'	NaN	'PVe'
	'generators_320_RTPV_4'	NaN	'PVe'
	'generators_104_PV_1'	NaN	'PVe'
	'generators_213_RTPV_1'	NaN	'PVe'
	'generators_313_RTPV_12'	NaN	'PVe'
	'generators_215_PV_1'	NaN	'PVe'
	'generators_118_RTPV_10'	NaN	'PVe'
	'generators_313_RTPV_6'	NaN	'PVe'
	'generators_102_PV_1'	NaN	'PVe'
	'generators_118_RTPV_1'	NaN	'PVe'
	'generators_317_WIND_1'	NaN	'WT'
	'generators_118_RTPV_4'	NaN	'PVe'
	'generators_313_RTPV_5'	NaN	'PVe'
	'generators_119_PV_1'	NaN	'PVe'
	'generators_118_RTPV_2'	NaN	'PVe'
	'generators_313_RTPV_8'	NaN	'PVe'
	'generators_319_PV_1'	NaN	'PVe'
	'generators_314_PV_3'	NaN	'PVe'
	'generators_308_RTPV_1'	NaN	'PVe'
	'generators_313_RTPV_13'	NaN	'PVe'
	'generators_324_PV_2'	NaN	'PVe'
	'generators_313_RTPV_2'	NaN	'PVe'
	'generators_313_RTPV_1'	NaN	'PVe'
	'generators_310_PV_2'	NaN	'PVe'
	'generators_320_RTPV_6'	NaN	'PVe'
	'generators_310_PV_1'	NaN	'PVe'
	'generators_118_RTPV_8'	NaN	'PVe'
	'generators_314_PV_1'	NaN	'PVe'
	'generators_324_PV_3'	NaN	'PVe'
	'generators_313_RTPV_4'	NaN	'PVe'
	'generators_314_PV_4'	NaN	'PVe'
	'generators_118_RTPV_9'	NaN	'PVe'
	'generators_101_PV_3'	NaN	'PVe'
	'generators_309_WIND_1'	NaN	'WT'
	'generators_320_RTPV_1'	NaN	'PVe'
	'generators_320_PV_1'	NaN	'PVe'
	'generators_320_RTPV_3'	NaN	'PVe'
	'generators_122_WIND_1'	NaN	'WT'
};

%column_names% col_1 col_2 
mpc.areas = {
	1	1
};

